/*--------------------------------*- C++ -*----------------------------------*\
  =========                 |
  \\      /  F ield         | OpenFOAM: The Open Source CFD Toolbox
   \\    /   O peration     | Website:  https://openfoam.org
    \\  /    A nd           | Version:  13
     \\/     M anipulation  |
\*---------------------------------------------------------------------------*/
FoamFile
{
    version     2.0;
    format      ascii;
    class       dictionary;
    object      transportProperties;
}

// * * * * * * * * * * * * * * * * * * * * * * * * * * * * * * * * * * * * * //

solid
{
    kappa       (78.0   0.108   0.0); 
    Cp          (780.0  0.40    0.0);
}

liquid
{
    kappa       (66.6 0.026 0.0);
    Cp          (1150.0 0.0 0.0);
}

powder
{
    kappa       (0.6    0.0 0.0); 
    Cp          (900.0  0.0 0.0);
}

//- Fluid and Physical properties
rho         [1 -3 0 0 0 0 0]    2670.0;
mu          [1 -1 -1 0 0 0 0]   0.0013;
beta        [0 0 0 -1 0 0 0]    1.0e-4;
DAS         [0 1 0 0 0 0 0]     1.0e-05;
Lf          [0 2 -2 0 0 0 0]    3.9e5;

// ************************************************************************* //

// ************************************************************************* //
