/*---------------------------------------------------------------------------*\
  =========                 |
  \\      /  F ield         | OpenFOAM: The Open Source CFD Toolbox
   \\    /   O peration     | Website:  https://openfoam.org
    \\  /    A nd           | Version:  10
     \\/     M anipulation  |
\*---------------------------------------------------------------------------*/
Build  : 10-fbdaf03a874a
Exec   : additiveFoam
Date   : May 12 2025
Time   : 11:47:25
Host   : "coleman"
PID    : 1251765
I/O    : uncollated
Case   : /home/cloud/data/version-testing/AdditiveFOAM/tutorials/AMB2018-02-B
nProcs : 1
sigFpe : Enabling floating point exception trapping (FOAM_SIGFPE).
fileModificationChecking : Monitoring run-time modified files using timeStampMaster (fileModificationSkew 10)
allowSystemOperations : Allowing user-supplied system call operations

// * * * * * * * * * * * * * * * * * * * * * * * * * * * * * * * * * * * * * //
AdditiveFOAM Information:
Version:   1.1.0-dev
Build:     1.0.0-46-gcb831c5
Git SHA1:  cb831c5be60ecaff5fedf3c6061587fad551159b

Create time

Create mesh for time = 0


PIMPLE: No convergence criteria found


PIMPLE: Operating solver in transient mode with 0 outer correctors


Reading field T

Setting auxiliary fields for solidification model

Reading field p_rgh

Reading field U

Reading/calculating face flux field phi


Reading g

Reading hRef
Calculating field g.h

No MRF models present

Adding heatSourceModel for beam
Selecting heatSource model superGaussian
Selecting absorption model constant
Reading scan path from: "/home/cloud/data/version-testing/AdditiveFOAM/tutorials/AMB2018-02-B/constant/scanPath"
1	0
2	0.0025
Initial path index: 2
Path end time: 0.0025

Starting time loop

Courant Number mean: 0 max: 0
Thermo Number max: 0
Diffusion Number max: 0.0065117623
deltaT = 1.199904e-07
maxDepth: 3e-05
Time = 1.199904e-07

absorbed power: 59.136
diagonal:  Solving for T, Initial residual = 0, Final residual = 0, No Iterations 0
Thermo: iteration 0 residual: 0
diagonal:  Solving for T, Initial residual = 0, Final residual = 0, No Iterations 0
Thermo: iteration 1 residual: 0
ExecutionTime = 0.095879 s  ClockTime = 0 s

Courant Number mean: 0 max: 0
Thermo Number max: 0.02684473
Diffusion Number max: 0.0078134897
deltaT = 1.439712e-07
maxDepth: 3e-05
Time = 2.639616e-07

absorbed power: 59.136
diagonal:  Solving for T, Initial residual = 0, Final residual = 0, No Iterations 0
Thermo: iteration 0 residual: 0
diagonal:  Solving for T, Initial residual = 0, Final residual = 0, No Iterations 0
Thermo: iteration 1 residual: 0
ExecutionTime = 0.110976 s  ClockTime = 0 s

Courant Number mean: 0 max: 0
Thermo Number max: 0.032196315
Diffusion Number max: 0.0093750625
deltaT = 1.7275549e-07
maxDepth: 3e-05
Time = 4.367171e-07

absorbed power: 59.136
diagonal:  Solving for T, Initial residual = 0, Final residual = 0, No Iterations 0
Thermo: iteration 0 residual: 0
diagonal:  Solving for T, Initial residual = 0, Final residual = 0, No Iterations 0
Thermo: iteration 1 residual: 0
ExecutionTime = 0.125462 s  ClockTime = 0 s

Courant Number mean: 0 max: 0
Thermo Number max: 0.038613133
Diffusion Number max: 0.011249427
deltaT = 2.0729226e-07
maxDepth: 3e-05
Time = 6.4400936e-07

absorbed power: 59.136
diagonal:  Solving for T, Initial residual = 0, Final residual = 0, No Iterations 0
Thermo: iteration 0 residual: 0
diagonal:  Solving for T, Initial residual = 0, Final residual = 0, No Iterations 0
Thermo: iteration 1 residual: 0
ExecutionTime = 0.14009 s  ClockTime = 0 s

Courant Number mean: 0 max: 0
Thermo Number max: 0.046302082
Diffusion Number max: 0.013498379
deltaT = 2.4871976e-07
maxDepth: 3e-05
Time = 8.9272912e-07

absorbed power: 59.136
diagonal:  Solving for T, Initial residual = 0, Final residual = 0, No Iterations 0
Thermo: iteration 0 residual: 0
diagonal:  Solving for T, Initial residual = 0, Final residual = 0, No Iterations 0
Thermo: iteration 1 residual: 0
ExecutionTime = 0.154612 s  ClockTime = 0 s

Courant Number mean: 0 max: 0
Thermo Number max: 0.055509364
Diffusion Number max: 0.016196039
deltaT = 2.9841914e-07
maxDepth: 3e-05
Time = 1.1911483e-06

absorbed power: 59.136
diagonal:  Solving for T, Initial residual = 0, Final residual = 0, No Iterations 0
Thermo: iteration 0 residual: 0
diagonal:  Solving for T, Initial residual = 0, Final residual = 0, No Iterations 0
Thermo: iteration 1 residual: 0
ExecutionTime = 0.169146 s  ClockTime = 0 s

Courant Number mean: 0 max: 0
Thermo Number max: 0.066530722
Diffusion Number max: 0.019432345
deltaT = 3.57996e-07
maxDepth: 3e-05
Time = 1.5491443e-06

absorbed power: 59.136
diagonal:  Solving for T, Initial residual = 0, Final residual = 0, No Iterations 0
Thermo: iteration 0 residual: 0
diagonal:  Solving for T, Initial residual = 0, Final residual = 0, No Iterations 0
Thermo: iteration 1 residual: 0
ExecutionTime = 0.183767 s  ClockTime = 0 s

Courant Number mean: 0 max: 0
Thermo Number max: 0.079704529
Diffusion Number max: 0.023311849
deltaT = 4.2944123e-07
maxDepth: 3e-05
Time = 1.9785855e-06

absorbed power: 59.136
diagonal:  Solving for T, Initial residual = 0, Final residual = 0, No Iterations 0
Thermo: iteration 0 residual: 0
diagonal:  Solving for T, Initial residual = 0, Final residual = 0, No Iterations 0
Thermo: iteration 1 residual: 0
ExecutionTime = 0.19832 s  ClockTime = 0 s

Courant Number mean: 0 max: 0
Thermo Number max: 0.09544319
Diffusion Number max: 0.027964192
deltaT = 5.1524079e-07
maxDepth: 3e-05
Time = 2.4938263e-06

absorbed power: 59.136
diagonal:  Solving for T, Initial residual = 0, Final residual = 0, No Iterations 0
Thermo: iteration 0 residual: 0
diagonal:  Solving for T, Initial residual = 0, Final residual = 0, No Iterations 0
Thermo: iteration 1 residual: 0
ExecutionTime = 0.212773 s  ClockTime = 0 s

Courant Number mean: 0 max: 0
Thermo Number max: 0.11425019
Diffusion Number max: 0.033551256
deltaT = 6.1803356e-07
maxDepth: 3e-05
Time = 3.1118598e-06

absorbed power: 59.136
diagonal:  Solving for T, Initial residual = 0, Final residual = 0, No Iterations 0
Thermo: iteration 0 residual: 0
diagonal:  Solving for T, Initial residual = 0, Final residual = 0, No Iterations 0
Thermo: iteration 1 residual: 0
ExecutionTime = 0.227349 s  ClockTime = 0 s

Courant Number mean: 0 max: 0
Thermo Number max: 0.13663206
Diffusion Number max: 0.040244877
deltaT = 7.4118077e-07
maxDepth: 3e-05
Time = 3.8530406e-06

absorbed power: 59.136
diagonal:  Solving for T, Initial residual = 0, Final residual = 0, No Iterations 0
Thermo: iteration 0 residual: 0
diagonal:  Solving for T, Initial residual = 0, Final residual = 0, No Iterations 0
Thermo: iteration 1 residual: 0
ExecutionTime = 0.241849 s  ClockTime = 0 s

Courant Number mean: 0 max: 0
Thermo Number max: 0.16307826
Diffusion Number max: 0.04826393
deltaT = 8.8862351e-07
maxDepth: 3e-05
Time = 4.7416641e-06

absorbed power: 59.136
diagonal:  Solving for T, Initial residual = 0, Final residual = 0, No Iterations 0
Thermo: iteration 0 residual: 0
diagonal:  Solving for T, Initial residual = 0, Final residual = 0, No Iterations 0
Thermo: iteration 1 residual: 0
ExecutionTime = 0.256362 s  ClockTime = 0 s

Courant Number mean: 0 max: 0
Thermo Number max: 0.19447682
Diffusion Number max: 0.057865051
deltaT = 1.0655871e-06
maxDepth: 3e-05
Time = 5.8072512e-06

absorbed power: 59.136
diagonal:  Solving for T, Initial residual = 0, Final residual = 0, No Iterations 0
Thermo: iteration 0 residual: 0
diagonal:  Solving for T, Initial residual = 0, Final residual = 0, No Iterations 0
Thermo: iteration 1 residual: 0
ExecutionTime = 0.270858 s  ClockTime = 0 s

Courant Number mean: 0 max: 0
Thermo Number max: 0.23153909
Diffusion Number max: 0.069396456
deltaT = 1.2778827e-06
maxDepth: 3e-05
Time = 7.0851339e-06

absorbed power: 59.136
diagonal:  Solving for T, Initial residual = 0, Final residual = 0, No Iterations 0
Thermo: iteration 0 residual: 0
diagonal:  Solving for T, Initial residual = 0, Final residual = 0, No Iterations 0
Thermo: iteration 1 residual: 0
ExecutionTime = 0.285371 s  ClockTime = 0 s

Courant Number mean: 0 max: 0
Thermo Number max: 0.27499068
Diffusion Number max: 0.087201739
deltaT = 1.532276e-06
maxDepth: 3e-05
Time = 8.61741e-06

absorbed power: 59.136
diagonal:  Solving for T, Initial residual = 0, Final residual = 0, No Iterations 0
Thermo: iteration 0 residual: 0
diagonal:  Solving for T, Initial residual = 0, Final residual = 0, No Iterations 0
Thermo: iteration 1 residual: 0
ExecutionTime = 0.299898 s  ClockTime = 0 s

Courant Number mean: 0 max: 0
Thermo Number max: 0.32541645
Diffusion Number max: 0.1102141
deltaT = 1.8358937e-06
maxDepth: 3e-05
Time = 1.0453304e-05

absorbed power: 59.136
diagonal:  Solving for T, Initial residual = 0, Final residual = 0, No Iterations 0
Thermo: iteration 0 residual: 0
diagonal:  Solving for T, Initial residual = 0, Final residual = 0, No Iterations 0
Thermo: iteration 1 residual: 0
ExecutionTime = 0.314648 s  ClockTime = 0 s

Courant Number mean: 0 max: 0
Thermo Number max: 0.3832152
Diffusion Number max: 0.14004002
deltaT = 2.1989927e-06
maxDepth: 3e-05
Time = 1.2652296e-05

absorbed power: 59.136
diagonal:  Solving for T, Initial residual = 0, Final residual = 0, No Iterations 0
Thermo: iteration 0 residual: 0
diagonal:  Solving for T, Initial residual = 0, Final residual = 0, No Iterations 0
Thermo: iteration 1 residual: 0
ExecutionTime = 0.329523 s  ClockTime = 0 s

Courant Number mean: 0 max: 0
Thermo Number max: 0.44771763
Diffusion Number max: 0.17893578
deltaT = 2.6329272e-06
maxDepth: 3e-05
Time = 1.5285224e-05

absorbed power: 59.136
diagonal:  Solving for T, Initial residual = 0, Final residual = 0, No Iterations 0
Thermo: iteration 0 residual: 0
diagonal:  Solving for T, Initial residual = 0, Final residual = 0, No Iterations 0
Thermo: iteration 1 residual: 0
ExecutionTime = 0.343894 s  ClockTime = 0 s

Courant Number mean: 0 max: 0
Thermo Number max: 0.51794589
Diffusion Number max: 0.22979916
deltaT = 3.1360343e-06
maxDepth: 3e-05
Time = 1.8421258e-05

absorbed power: 59.136
diagonal:  Solving for T, Initial residual = 0, Final residual = 0, No Iterations 0
Thermo: iteration 0 residual: 0
diagonal:  Solving for T, Initial residual = 0, Final residual = 0, No Iterations 0
Thermo: iteration 1 residual: 0
ExecutionTime = 0.35832 s  ClockTime = 0 s

Courant Number mean: 0 max: 0
Thermo Number max: 0.58757505
Diffusion Number max: 0.29480257
deltaT = 3.6626072e-06
maxDepth: 3e-05
Time = 2.2083865e-05

absorbed power: 59.136
diagonal:  Solving for T, Initial residual = 0, Final residual = 0, No Iterations 0
Thermo: iteration 0 residual: 0
diagonal:  Solving for T, Initial residual = 0, Final residual = 0, No Iterations 0
Thermo: iteration 1 residual: 0
ExecutionTime = 0.372693 s  ClockTime = 0 s

Courant Number mean: 0 max: 0
Thermo Number max: 0.65766158
Diffusion Number max: 0.37139439
deltaT = 4.197065e-06
maxDepth: 3e-05
Time = 2.628093e-05

absorbed power: 59.136
diagonal:  Solving for T, Initial residual = 0, Final residual = 0, No Iterations 0
Thermo: iteration 0 residual: 0
diagonal:  Solving for T, Initial residual = 0, Final residual = 0, No Iterations 0
Thermo: iteration 1 residual: 0
ExecutionTime = 0.387006 s  ClockTime = 0 s

Courant Number mean: 0 max: 0
Thermo Number max: 0.72591261
Diffusion Number max: 0.45833854
deltaT = 4.7498491e-06
maxDepth: 3e-05
Time = 3.1030779e-05

absorbed power: 59.136
diagonal:  Solving for T, Initial residual = 0, Final residual = 0, No Iterations 0
Thermo: iteration 0 residual: 0
diagonal:  Solving for T, Initial residual = 0, Final residual = 0, No Iterations 0
Thermo: iteration 1 residual: 0.18842969
diagonal:  Solving for T, Initial residual = 0, Final residual = 0, No Iterations 0
Thermo: iteration 2 residual: 1.110223e-15
ExecutionTime = 0.402825 s  ClockTime = 0 s

Courant Number mean: 0 max: 0
Thermo Number max: 0.73414112
Diffusion Number max: 0.52570414
deltaT = 5.3831623e-06
maxDepth: 3e-05
Time = 3.6413941e-05

absorbed power: 59.136
diagonal:  Solving for T, Initial residual = 0, Final residual = 0, No Iterations 0
Thermo: iteration 0 residual: 0.3034824
diagonal:  Solving for T, Initial residual = 0, Final residual = 0, No Iterations 0
Thermo: iteration 1 residual: 0.18048632
diagonal:  Solving for T, Initial residual = 0, Final residual = 0, No Iterations 0
Thermo: iteration 2 residual: 1.110223e-15
ExecutionTime = 0.418798 s  ClockTime = 0 s

Courant Number mean: 0 max: 0
Thermo Number max: 0.8110325
Diffusion Number max: 0.5890944
deltaT = 6.0224129e-06
maxDepth: 3e-05
Time = 4.2436354e-05

absorbed power: 59.136
diagonal:  Solving for T, Initial residual = 0, Final residual = 0, No Iterations 0
Thermo: iteration 0 residual: 0.3479745
diagonal:  Solving for T, Initial residual = 0, Final residual = 0, No Iterations 0
Thermo: iteration 1 residual: 0.26718869
diagonal:  Solving for T, Initial residual = 0, Final residual = 0, No Iterations 0
Thermo: iteration 2 residual: 1.110223e-15
ExecutionTime = 0.434606 s  ClockTime = 0 s

Courant Number mean: 0 max: 0
Thermo Number max: 0.79544818
Diffusion Number max: 0.66078796
deltaT = 6.743406e-06
maxDepth: 3e-05
Time = 4.917976e-05

absorbed power: 59.136
diagonal:  Solving for T, Initial residual = 0, Final residual = 0, No Iterations 0
Thermo: iteration 0 residual: 0.37588751
diagonal:  Solving for T, Initial residual = 0, Final residual = 0, No Iterations 0
Thermo: iteration 1 residual: 0.072254624
diagonal:  Solving for T, Initial residual = 0, Final residual = 0, No Iterations 0
Thermo: iteration 2 residual: 1.0824674e-15
ExecutionTime = 0.450619 s  ClockTime = 0 s

Courant Number mean: 0 max: 0
Thermo Number max: 0.86195746
Diffusion Number max: 0.74537685
deltaT = 7.4867735e-06
maxDepth: 3e-05
Time = 5.6666534e-05

absorbed power: 59.136
diagonal:  Solving for T, Initial residual = 0, Final residual = 0, No Iterations 0
Thermo: iteration 0 residual: 0.36904435
diagonal:  Solving for T, Initial residual = 0, Final residual = 0, No Iterations 0
Thermo: iteration 1 residual: 0.27726995
diagonal:  Solving for T, Initial residual = 0, Final residual = 0, No Iterations 0
Thermo: iteration 2 residual: 1.0824674e-15
ExecutionTime = 0.466189 s  ClockTime = 0 s

Courant Number mean: 0 max: 0
Thermo Number max: 0.85522871
Diffusion Number max: 0.81005574
deltaT = 8.274855e-06
maxDepth: 3e-05
Time = 6.4941389e-05

absorbed power: 59.136
diagonal:  Solving for T, Initial residual = 0, Final residual = 0, No Iterations 0
Thermo: iteration 0 residual: 0.43639626
diagonal:  Solving for T, Initial residual = 0, Final residual = 0, No Iterations 0
Thermo: iteration 1 residual: 1.110223e-15
ExecutionTime = 0.480599 s  ClockTime = 0 s

Courant Number mean: 0 max: 0
Thermo Number max: 1.0608659
Diffusion Number max: 0.89034212
deltaT = 7.7277571e-06
maxDepth: 3e-05
Time = 7.2669146e-05

absorbed power: 59.136
diagonal:  Solving for T, Initial residual = 0, Final residual = 0, No Iterations 0
Thermo: iteration 0 residual: 0.38785448
diagonal:  Solving for T, Initial residual = 0, Final residual = 0, No Iterations 0
Thermo: iteration 1 residual: 0.17139442
diagonal:  Solving for T, Initial residual = 0, Final residual = 0, No Iterations 0
Thermo: iteration 2 residual: 1.110223e-15
ExecutionTime = 0.496148 s  ClockTime = 0 s

Courant Number mean: 0 max: 0
Thermo Number max: 0.83352953
Diffusion Number max: 0.84757706
deltaT = 8.5863968e-06
maxDepth: 3e-05
Time = 8.1255543e-05

absorbed power: 59.136
diagonal:  Solving for T, Initial residual = 0, Final residual = 0, No Iterations 0
Thermo: iteration 0 residual: 0.41559728
diagonal:  Solving for T, Initial residual = 0, Final residual = 0, No Iterations 0
Thermo: iteration 1 residual: 1.110223e-15
ExecutionTime = 0.510496 s  ClockTime = 0 s

Courant Number mean: 0 max: 0
Thermo Number max: 1.0908577
Diffusion Number max: 0.93833913
deltaT = 7.8525167e-06
maxDepth: 3e-05
Time = 8.9108059e-05

absorbed power: 59.136
diagonal:  Solving for T, Initial residual = 0, Final residual = 0, No Iterations 0
Thermo: iteration 0 residual: 0.41300831
diagonal:  Solving for T, Initial residual = 0, Final residual = 0, No Iterations 0
Thermo: iteration 1 residual: 0.052352832
diagonal:  Solving for T, Initial residual = 0, Final residual = 0, No Iterations 0
Thermo: iteration 2 residual: 1.110223e-15
ExecutionTime = 0.525963 s  ClockTime = 0 s

Courant Number mean: 0 max: 0
Thermo Number max: 0.83746177
Diffusion Number max: 0.89199091
deltaT = 8.6751613e-06
maxDepth: 3e-05
Time = 9.7783221e-05

absorbed power: 59.136
diagonal:  Solving for T, Initial residual = 0, Final residual = 0, No Iterations 0
Thermo: iteration 0 residual: 0.34445218
diagonal:  Solving for T, Initial residual = 0, Final residual = 0, No Iterations 0
Thermo: iteration 1 residual: 0.30398858
diagonal:  Solving for T, Initial residual = 0, Final residual = 0, No Iterations 0
Thermo: iteration 2 residual: 2.220446e-15
ExecutionTime = 0.541786 s  ClockTime = 0 s

Courant Number mean: 0 max: 0
Thermo Number max: 1.2351677
Diffusion Number max: 1.0129461
deltaT = 6.9939285e-06
maxDepth: 3e-05
Time = 0.00010477715

absorbed power: 59.136
diagonal:  Solving for T, Initial residual = 0, Final residual = 0, No Iterations 0
Thermo: iteration 0 residual: 0.36693732
diagonal:  Solving for T, Initial residual = 0, Final residual = 0, No Iterations 0
Thermo: iteration 1 residual: 0.028444091
diagonal:  Solving for T, Initial residual = 0, Final residual = 0, No Iterations 0
Thermo: iteration 2 residual: 2.1649349e-15
ExecutionTime = 0.557419 s  ClockTime = 0 s

Courant Number mean: 0 max: 0
Thermo Number max: 0.88046753
Diffusion Number max: 0.82774364
deltaT = 7.7174384e-06
maxDepth: 3e-05
Time = 0.00011249459

absorbed power: 59.136
diagonal:  Solving for T, Initial residual = 0, Final residual = 0, No Iterations 0
Thermo: iteration 0 residual: 0.38462415
diagonal:  Solving for T, Initial residual = 0, Final residual = 0, No Iterations 0
Thermo: iteration 1 residual: 0.080438133
diagonal:  Solving for T, Initial residual = 0, Final residual = 0, No Iterations 0
Thermo: iteration 2 residual: 2.220446e-15
ExecutionTime = 0.573192 s  ClockTime = 0 s

Courant Number mean: 0 max: 0
Thermo Number max: 0.77442504
Diffusion Number max: 0.92915699
deltaT = 8.2176427e-06
maxDepth: 3e-05
Time = 0.00012071223

absorbed power: 59.136
diagonal:  Solving for T, Initial residual = 0, Final residual = 0, No Iterations 0
Thermo: iteration 0 residual: 0.22400858
diagonal:  Solving for T, Initial residual = 0, Final residual = 0, No Iterations 0
Thermo: iteration 1 residual: 0.27840874
diagonal:  Solving for T, Initial residual = 0, Final residual = 0, No Iterations 0
Thermo: iteration 2 residual: 2.220446e-15
ExecutionTime = 0.589624 s  ClockTime = 0 s

Courant Number mean: 0 max: 0
Thermo Number max: 1.1282329
Diffusion Number max: 1.0090314
deltaT = 7.2668411e-06
maxDepth: 3e-05
Time = 0.00012797907

absorbed power: 59.136
diagonal:  Solving for T, Initial residual = 0, Final residual = 0, No Iterations 0
Thermo: iteration 0 residual: 0.37682324
diagonal:  Solving for T, Initial residual = 0, Final residual = 0, No Iterations 0
Thermo: iteration 1 residual: 0.032084505
diagonal:  Solving for T, Initial residual = 0, Final residual = 0, No Iterations 0
Thermo: iteration 2 residual: 2.220446e-15
ExecutionTime = 0.605209 s  ClockTime = 1 s

Courant Number mean: 0 max: 0
Thermo Number max: 0.88104499
Diffusion Number max: 0.90165956
deltaT = 8.000192e-06
maxDepth: 3e-05
Time = 0.00013597926

absorbed power: 59.136
diagonal:  Solving for T, Initial residual = 0, Final residual = 0, No Iterations 0
Thermo: iteration 0 residual: 0.40148085
diagonal:  Solving for T, Initial residual = 0, Final residual = 0, No Iterations 0
Thermo: iteration 1 residual: 0.11513885
diagonal:  Solving for T, Initial residual = 0, Final residual = 0, No Iterations 0
Thermo: iteration 2 residual: 2.220446e-15
ExecutionTime = 0.620755 s  ClockTime = 1 s

Courant Number mean: 0 max: 0
Thermo Number max: 0.79968624
Diffusion Number max: 0.99640543
deltaT = 8.000192e-06
maxDepth: 3e-05
Time = 0.00014397946

absorbed power: 59.136
diagonal:  Solving for T, Initial residual = 0, Final residual = 0, No Iterations 0
Thermo: iteration 0 residual: 0.2182237
diagonal:  Solving for T, Initial residual = 0, Final residual = 0, No Iterations 0
Thermo: iteration 1 residual: 0.23592949
diagonal:  Solving for T, Initial residual = 0, Final residual = 0, No Iterations 0
Thermo: iteration 2 residual: 1.110223e-15
ExecutionTime = 0.636425 s  ClockTime = 1 s

Courant Number mean: 0 max: 0
Thermo Number max: 1.1027041
Diffusion Number max: 1.0089746
deltaT = 7.19345e-06
maxDepth: 3e-05
Time = 0.00015117291

absorbed power: 59.136
diagonal:  Solving for T, Initial residual = 0, Final residual = 0, No Iterations 0
Thermo: iteration 0 residual: 0.36297692
diagonal:  Solving for T, Initial residual = 0, Final residual = 0, No Iterations 0
Thermo: iteration 1 residual: 0.067543277
diagonal:  Solving for T, Initial residual = 0, Final residual = 0, No Iterations 0
Thermo: iteration 2 residual: 2.1649349e-15
ExecutionTime = 0.651967 s  ClockTime = 1 s

Courant Number mean: 0 max: 0
Thermo Number max: 0.89230018
Diffusion Number max: 0.9156174
deltaT = 7.7874045e-06
maxDepth: 3e-05
Time = 0.00015896031

absorbed power: 59.136
diagonal:  Solving for T, Initial residual = 0, Final residual = 0, No Iterations 0
Thermo: iteration 0 residual: 0.40109359
diagonal:  Solving for T, Initial residual = 0, Final residual = 0, No Iterations 0
Thermo: iteration 1 residual: 0.043277885
diagonal:  Solving for T, Initial residual = 0, Final residual = 0, No Iterations 0
Thermo: iteration 2 residual: 1.110223e-15
ExecutionTime = 0.667585 s  ClockTime = 1 s

Courant Number mean: 0 max: 0
Thermo Number max: 0.76897378
Diffusion Number max: 0.9943152
deltaT = 7.7874045e-06
maxDepth: 3e-05
Time = 0.00016674771

absorbed power: 59.136
diagonal:  Solving for T, Initial residual = 0, Final residual = 0, No Iterations 0
Thermo: iteration 0 residual: 0.285053
diagonal:  Solving for T, Initial residual = 0, Final residual = 0, No Iterations 0
Thermo: iteration 1 residual: 0.15475042
diagonal:  Solving for T, Initial residual = 0, Final residual = 0, No Iterations 0
Thermo: iteration 2 residual: 2.220446e-15
ExecutionTime = 0.683377 s  ClockTime = 1 s

Courant Number mean: 0 max: 0
Thermo Number max: 1.1140749
Diffusion Number max: 0.99411972
deltaT = 6.943769e-06
maxDepth: 3e-05
Time = 0.00017369148

absorbed power: 59.136
diagonal:  Solving for T, Initial residual = 0, Final residual = 0, No Iterations 0
Thermo: iteration 0 residual: 0.33099771
diagonal:  Solving for T, Initial residual = 0, Final residual = 0, No Iterations 0
Thermo: iteration 1 residual: 0.22935748
diagonal:  Solving for T, Initial residual = 0, Final residual = 0, No Iterations 0
Thermo: iteration 2 residual: 2.220446e-15
ExecutionTime = 0.699096 s  ClockTime = 1 s

Courant Number mean: 0 max: 0
Thermo Number max: 0.92053903
Diffusion Number max: 0.89510249
deltaT = 7.5118956e-06
maxDepth: 3e-05
Time = 0.00018120338

absorbed power: 59.136
diagonal:  Solving for T, Initial residual = 0, Final residual = 0, No Iterations 0
Thermo: iteration 0 residual: 0.41316003
diagonal:  Solving for T, Initial residual = 0, Final residual = 0, No Iterations 0
Thermo: iteration 1 residual: 2.1649349e-15
ExecutionTime = 0.713515 s  ClockTime = 1 s

Courant Number mean: 0 max: 0
Thermo Number max: 0.76492777
Diffusion Number max: 0.97252942
deltaT = 7.6523049e-06
maxDepth: 3e-05
Time = 0.00018885568

absorbed power: 59.136
diagonal:  Solving for T, Initial residual = 0, Final residual = 0, No Iterations 0
Thermo: iteration 0 residual: 0.41840264
